/*--------------------------------*- C++ -*----------------------------------*\
  =========                 |
  \\      /  F ield         | OpenFOAM: The Open Source CFD Toolbox
   \\    /   O peration     | Website:  https://openfoam.org
    \\  /    A nd           | Version:  dev
     \\/     M anipulation  |
\*---------------------------------------------------------------------------*/
FoamFile
{
    version     2.0;
    format      ascii;
    class       volScalarField;
    location    "0";
    object      Ce;
}
// * * * * * * * * * * * * * * * * * * * * * * * * * * * * * * * * * * * * * //
dimensions      [0 -3 0 0 1 0 0];//[kg m s K mol A cd]

internalField   uniform 1000;

boundaryField
{


    frontAndBack
    {
        type            empty;
    }
    
    topAndBottom
    {
        type            empty;
    }
    
    leftLet
    {
        type            zeroGradient;
    }
    
    rightLet
    {
        type            zeroGradient;
    }
    
}

// ************************************************************************* //
