/*--------------------------------*- C++ -*----------------------------------*\
  =========                 |
  \\      /  F ield         | OpenFOAM: The Open Source CFD Toolbox
   \\    /   O peration     | Website:  https://openfoam.org
    \\  /    A nd           | Version:  dev
     \\/     M anipulation  |
\*---------------------------------------------------------------------------*/
FoamFile
{
    version     2.0;
    format      ascii;
    class       volScalarField;
    location    "0";
    object      fis;
}
// * * * * * * * * * * * * * * * * * * * * * * * * * * * * * * * * * * * * * // 
dimensions      [ 1 2 -3 0 0 -1 0 ];

internalField   uniform 0;

boundaryField
{

    frontAndBack
    {
        type            empty;
    }
    
    topAndBottom
    {
        type            empty;
    }
    
    leftLet
    {
     //   type            fixedGradient;
     //   gradient        uniform -2;
        
        type            fixedValue;
        value           uniform  0;
    }
    
    rightLet
    {
        type            fixedGradient;
        gradient        uniform -1;
        
  //      type  uniformFixedGradient;
  //      uniformGradient   sine;
  //      frequency        2*pi/1200;
  //      amplitude        0.2;
  //      scale            1;  // Scale factor for current
  //      level             -0.5; 
    }    

}


// ************************************************************************* //
